case24_IEEE.m
function mpc = case24_IEEE
%CASE24_IEEE

%   MATPOWER

%% MATPOWER Case Format : Version 2
mpc.version = '2';

%%-----  Power Flow Data  -----%%
%% system MVA base
mpc.baseMVA = 100;

%% bus data
%	bus_i	type	Pd	  Qd	  Gs	Bs	area	Vm	Va	baseKV	zone	Vmax	Vmin
mpc.bus = [
	1	     3	   324	  66	   0	0	1	    1	0	138  	1	    1.05	0.95;
	2	     2	   291	  60	   0	0	1	    1	0	138	    1	    1.05	0.95;
	3	     1	   540	 111	   0	0	1	    1	0	138	    1	    1.05	0.95;
	4	     1	   222	  45	   0	0	1	    1	0	138	    1	    1.05	0.95;
	5	     1	   213	  42	   0	0	1	    1	0	138	    1	    1.05	0.95;
	6	     2	   408	  84	   0	0	1	    1	0	138	    1	    1.05	0.95;
	7	     2	   375    75	   0	0	1	    1	0	138	    1	    1.05	0.95;
	8	     1	   513	 105	   0	0	1	    1	0	138	    1	    1.05	0.95;
	9	     1	   525	 108	   0	0	1	    1	0	138	    1	    1.05	0.95;
	10	     1	   585	 120	   0	0	1	    1	0	138	    1	    1.05	0.95;
	11	     1	     0	   0	   0	0	1	    1	0	138	    1	    1.05	0.95;
	12	     1	     0	   0	   0	0	1	    1	0	138	    1	    1.05	0.95;
	13	     2	   795   162	   0	0	1	    1	0	138	    1	    1.05	0.95;
	14	     2	   582   117	   0	0	1	    1	0	138	    1	    1.05	0.95;
	15	     2	   951   192	   0	0	1	    1	0	138	    1	    1.05	0.95;
	16	     2	   300    60	   0	0	1	    1	0	138	    1	    1.05	0.95;
	17	     1	     0     0	   0	0	1	    1	0	138	    1	    1.05	0.95;
	18	     2	   999   204	   0	0	1	    1	0	138	    1	    1.05	0.95;
	19	     1	   543   111	   0	0	1	    1	0	138	    1	    1.05	0.95;
	20	     1	   384    78	   0	0	1	    1	0	138	    1	    1.05	0.95;
	21	     2	     0     0	   0	0	1	    1	0	138	    1	    1.05	0.95;
	22	     2	     0     0	   0	0	1	    1	0	138	    1	    1.05	0.95;
	23	     2	     0     0	   0	0	1	    1	0	138	    1	    1.05	0.95;
	24	     1	     0     0	   0	0	1	    1	0	138	    1	    1.05	0.95;
];

%% generator data
%	bus	  Pg	  Qg	Qmax	Qmin	 Vg	    mBase	status	Pmax	Pmin	Pc1	   Pc2	  Qc1min	Qc1max	Qc2min	Qc2max	ramp_agc	ramp_10	ramp_30	ramp_q	apf	%	Unit Code
mpc.gen = [
	1	  400	   150	 240	-150    1.05	100	      1	     576	 0	       0	0	0	0	0	0	0	0	0	0	0;	
	2	  400	   150	 240	-150    1.05	100	      1	     576	 0	       0	0	0	0	0	0	0	0	0	0	0;	
	6	  0	      -150	   0	-300    1.05	100	      1	       0	 0	       0	0	0	0	0	0	0	0	0	0	0;	
	7	  600	   300	 540	   0    1.05	100	      1	     900	 0	       0	0	0	0	0	0	0	0	0	0	0;	
	13	  1400	   500	 720	   0    1.05	100	      1	    1773	 0	       0	0	0	0	0	0	0	0	0	0	0;	
	14	  0 	   300	 600	-150    1.05	100	      1	       0	 0	       0	0	0	0	0	0	0	0	0	0	0;	
	15	  600	   200	 330	-150    1.05	100	      1	     645   192	       0	0	0	0	0	0	0	0	0	0	0;	
	16	  400	   180	 240	-150    1.05	100	      1	     465	60	       0	0	0	0	0	0	0	0	0	0	0;	
	18	  1200	   500	 600	-150    1.05	100	      1	    1200	 0	       0	0	0	0	0	0	0	0	0	0	0;	
	21	  1200	   500	 600	-150    1.05	100	      1	    1200	 0	       0	0	0	0	0	0	0	0	0	0	0;	
	22	  900	   160	 288	-180    1.05	100	      1	     900	 0	       0	0	0	0	0	0	0	0	0	0	0;	
	23	  1900	   700	 930	-375    1.05	100	      1	    1980	 0	       0	0	0	0	0	0	0	0	0	0	0;	
];
%% branch data
%	fbus	tbus	 r	       x	   b	     rateA	rateB	rateC	ratio	angle	status	angmin	angmax
mpc.branch = [
	 1	     2	  0.0026    0.0139	 0.4611	     200	 200    200       0	      0	       1	 -360	  360;
	 1	     3	  0.0546    0.2112	 0.0572	     220	 220    220       0	      0	       1	 -360	  360;
	 1	     5	  0.0218    0.0845	 0.0229	     220	 220    220       0	      0	       1	 -360	  360;
	 1	     8	  0.0348    0.1344	 0.0000	     220	 220    220       0	      0	       0	 -360	  360;
	 2	     4	  0.0328    0.1267	 0.0343	     220	 220    220       0	      0	       1	 -360	  360;
	 2	     6	  0.0497    0.1920	 0.0520	     220	 220    220       0	      0	       1	 -360	  360;
	 2	     8	  0.0328    0.1267	 0.0000	     220	 220    220       0	      0	       0	 -360	  360;
	 3	     9	  0.0308    0.1190	 0.0322	     220	 220    220       0	      0	       1	 -360	  360;
	 3	    24	  0.0023    0.0839	 0.0000	     600	 600    600       0	      0	       1	 -360	  360;
	 4	     9	  0.0268    0.1037	 0.0281	     220	 220    220       0	      0	       1	 -360	  360;
	 5	    10	  0.0228    0.0883	 0.0239	     220	 220    220       0	      0	       1	 -360	  360;
	 6	     7	  0.0497    0.1920	 0.0000	     220	 220    220       0	      0	       0	 -360	  360;
	 6	    10	  0.0139    0.0605	 2.4590	     200	 200    200       0	      0	       1	 -360	  360;
	 7	     8	  0.0159    0.0614	 0.0166	     220	 220    220       0	      0	       1	 -360	  360;
	 8	     9	  0.0427    0.1651	 0.0447	     220	 220    220       0	      0	       1	 -360	  360;
	 8	    10	  0.0427    0.1651	 0.0447	     220	 220    220       0	      0	       1	 -360	  360;
	 9	    11	  0.0023    0.0839	 0.0000	     600	 600    600       0	      0	       1	 -360	  360;
	 9	    12	  0.0023    0.0839	 0.0000	     600	 600    600       0	      0	       1	 -360	  360;
	 10	    11	  0.0023    0.0839	 0.0000	     600	 600    600       0	      0	       1	 -360	  360;
	 10	    12	  0.0023    0.0839	 0.0000	     600	 600    600       0	      0	       1	 -360	  360;
	 11	    13	  0.0061    0.0476	 0.0999	     625	 625    625       0	      0	       1	 -360	  360;
	 11	    14	  0.0054    0.0418	 0.0879	     625	 625    625       0	      0	       1	 -360	  360;
	 12	    13	  0.0061    0.0476	 0.0999	     625	 625    625       0	      0	       1	 -360	  360;
	 12	    23	  0.0124    0.0966	 0.2030	     625	 625    625       0	      0	       1	 -360	  360;
	 13	    14	  0.0057    0.0447	 0.0000	     625	 625    625       0	      0	       0	 -360	  360;
	 13	    23	  0.0111    0.0865	 0.1818	     625	 625    625       0	      0	       1	 -360	  360;
	 14	    16	  0.0050    0.0389	 0.0818	     625	 625    625       0	      0	       1	 -360	  360;
	 14	    23	  0.0080    0.0620	 0.0000	     625	 625    625       0	      0	       0	 -360	  360;
	 15	    16	  0.0022    0.0173	 0.0364	     625	 625    625       0	      0	       1	 -360	  360;
	 15	    21	  0.0063    0.0490	 0.1030	     625	 625    625       0	      0	       1	 -360	  360;
	 15	    24	  0.0067    0.0519	 0.1091	     625	 625    625       0	      0	       1	 -360	  360;
	 16	    17	  0.0033    0.0259	 0.0545	     625	 625    625       0	      0	       1	 -360	  360;
	 16	    19	  0.0030    0.0231	 0.0485	     625	 625    625       0	      0	       1	 -360	  360;
	 16	    23	  0.0105    0.0822	 0.0000	     625	 625    625       0	      0	       0	 -360	  360;
	 17	    18	  0.0018    0.0144	 0.0303	     625	 625    625       0	      0	       1	 -360	  360;
	 17	    22	  0.0135    0.1053	 0.2212	     625	 625    625       0	      0	       1	 -360	  360;
	 18	    21	  0.0033    0.0259	 0.0545	     625	 625    625       0	      0	       1	 -360	  360;
	 19	    20	  0.0051    0.0396	 0.0833	     625	 625    625       0	      0	       1	 -360	  360;
     19	    23	  0.0078    0.0606	 0.0000	     625	 625    625       0	      0	       0	 -360	  360;
     20	    23	  0.0028    0.0216	 0.0455	     625	 625    625       0	      0	       1	 -360	  360;
     21	    22	  0.0087    0.0678	 0.1424	     625	 625    625       0	      0	       1	 -360	  360;
];

%%-----  OPF Data  -----%%
%% generator cost data
%	1	startup	shutdown	n	x1	y1	...	xn	yn
%	2	startup	shutdown	n	c(n-1)	...	c0
mpc.gencost = [								
	2	0	0	3	0	20.3	 0 ;	%	1	
	2	0	0	3	0	18.5	 0 ;	%	2	
    2	0	0	3	0	 0       0 ;	%	6					
	2	0	0	3	0	24.4	 0 ;	%	7	
	2	0	0	3	0	22.2	 0 ;	%	13
	2	0	0	3	0	 0	     0 ;	%	14					
	2	0	0	3	0	23.6	 0 ;	%	15	
	2	0	0	3	0	19.1	 0 ;	%	16	
	2	0	0	3	0	16.0	 0 ;	%	18	
	2	0	0	3	0	20.8	 0 ;	%	21	
	2	0	0	3	0	21.2	 0 ;	%	22	
	2	0	0	3	0	16.9	 0 ;    %	23	
];